Circuit: * Z:\home\gopal\Documents\table_32\amplifier.asc

Direct Newton iteration for .op point succeeded.

voutpp: PP(v(out))=7.83012 FROM 0 TO 0.01
vinpp: PP(v(inp))=0.0199949 FROM 0 TO 0.01
voutprepp: PP(v(out_preamp))=0.0618377 FROM 0 TO 0.01
voutgainpp: PP(v(out_gainamp))=8.56467 FROM 0 TO 0.01
voutfilterpp: PP(v(out_filter))=8.55543 FROM 0 TO 0.01
gainpre: voutprepp/vinpp=3.09268
gainamp2: voutgainpp/voutprepp=138.502
filtering: voutfilterpp/voutgainpp=0.998922
gain: voutpp/vinpp=391.607
power_rms: RMS(v(out)*i(rspeaker))=1.0411 FROM 0 TO 0.01


Date: Tue Feb 18 11:12:32 2025
Total elapsed time: 0.256 seconds.

tnom = 27
temp = 27
method = modified trap
totiter = 10937
traniter = 10924
tranpoints = 4193
accept = 3053
rejected = 1140
matrix size = 87
fillins = 169
solver = Normal
Matrix Compiler1:     888 opcodes  1.6/[0.7]/0.8
Matrix Compiler2: 10.51 KB object code size  0.8/0.8/[0.8]


